&share
 wrf_core = 'ARW',
 max_dom = 3,
 start_date = '0001-01-01_00:00:00','0001-01-01_12:00:00','0001-01-01_06:00:00',
 end_date   = '0001-01-01_24:00:00','0001-01-01_18:00:00','0001-01-01_06:00:00',
 interval_seconds = 21600
 io_form_geogrid = 2,
/

&geogrid
 parent_id         =   1,   1,   1
 parent_grid_ratio =   1,   3,   3,
 i_parent_start    =   1,  31,  31,
 j_parent_start    =   1,  17,  17,
 e_we              =  74, 112, 112,
 e_sn              =  61,  97,  97,
 geog_data_res     = '10m','2m','2m',
 dx = 30000,
 dy = 30000,
 map_proj = 'lambert',
 ref_lat   =  34.83,
 ref_lon   = -81.03,
 truelat1  =  30.0,
 truelat2  =  60.0,
 stand_lon = -98.0,
 geog_data_path = '/media/data/DATA/WRF/geog/',
 opt_geogrid_tbl_path = 'meta/',
/

&ungrib
 out_format = 'WPS',
 prefix = 'FILE',
/

&metgrid
 fg_name = 'FILE'
 io_form_metgrid = 2, 
 opt_metgrid_tbl_path = 'meta/',
/
