&geogrid
 geog_data_res = 'usgs_lakes+10m', 'usgs_lakes+5m',
 dx = 30000,
 dy = 30000,
 map_proj = 'lambert',
 ref_lat   =  55,
 ref_lon   = -125.0,
 truelat1  =  61., ! 57
 truelat2  =  43., ! 47
 stand_lon = -125,
 geog_data_path = '/project/p/peltier/aerler/geog/',
 opt_geogrid_tbl_path = 'meta/'
/
