&geogrid
 geog_data_res = 'modis_5m+topo_5m+1deg+10m+lowres', 'modis_5mi+topo_5m+20m+5m+lowres', 'modis_30s+topo_30s+2m+30s', 'modis_30s+topo_30s+30s',
 dx = 30000,
 dy = 30000,
 map_proj = 'lambert',
 ref_lat   =  20.00,
 ref_lon   = -140.50,
 ref_x   =  1,
 ref_y   = 61,
 truelat1  =  50,
 truelat2  =  50,
 stand_lon = -107,
 geog_data_path = '/project/p/peltier/aerler/geog/',
 opt_geogrid_tbl_path = 'meta/'
/
