&geogrid
 parent_id         =   1,   1,   2, 
 parent_grid_ratio =   1,   3,   3, 
 i_parent_start    =   1,  53,  32, 
 j_parent_start    =   1,  41,   7, 
 e_we              =  88,  61,  71, 
 e_sn              =  88,  61,  61, 
/
