&geogrid
 parent_id         =    1,    1,
 parent_grid_ratio =    1,    3,
 i_parent_start    =    1,   28,
 j_parent_start    =    1,   13,
 e_we              =   65,   67,
 e_sn              =   45,   67,
 geog_data_res = 'usgs_lakes+10m', 'usgs_lakes+10m',
 dx = 120000,
 dy = 120000,
 map_proj = 'lambert',
 ref_lat   =  57.,
 ref_lon   = -137.0,
 truelat1  =  53.,
 truelat2  =  53.,
 stand_lon = -130,
 geog_data_path = '/scratch/p/peltier/aerler/data/geog/',
 opt_geogrid_tbl_path = 'meta/'
/
