&geogrid
 geog_data_res = 'usgs_lakes+10m','usgs_lakes+2m','usgs_lakes+30s','usgs_lakes+30s',
 dx = 27000,
 dy = 27000,
 map_proj =  'lambert',
 ref_lat   = 42.183,
 ref_lon   = -127.916,
 truelat1  = 42.183,
 truelat2  = 42.183,
 stand_lon = -127.916,
 geog_data_path = '',
 opt_geogrid_tbl_path = 'meta/',
 ref_x = 179.5,
 ref_y = 125.0,
/
