This is the grid definition that's shared between the WPS and WRF namelist
&geogrid
 parent_id         =    1,    1,
 parent_grid_ratio =    1,    3,
 i_parent_start    =    1,  113,
 j_parent_start    =    1,   52,
 e_we              =  260,  271,
 e_sn              =  180,  271,
/
