&geogrid
 geog_data_res = 'modis_lakes+10m', 'modis_lakes+30s', 'modis_lakes+30s', 'modis_lakes+30s', 'modis_lakes+30s',
 dx = 30000,
 dy = 30000,
 map_proj = 'lambert',
 ref_lat   =  44.00,
 ref_lon   = -85.00,
 truelat1  =  44.00,
 truelat2  =  44.00,
 stand_lon = -85.00,
 geog_data_path = '/project/p/peltier/WRF/geog_v3.9/',
 opt_geogrid_tbl_path = 'meta/'
/
