This is the grid definition that's shared between the WPS and WRF namelist
&geogrid
 parent_id         =   1,   1,   1,
 parent_grid_ratio =   1,   7,   7,
 i_parent_start    =   1,  70, 140,
 j_parent_start    =   1, 100,  55,
 e_we              = 256, 491, 421,
 e_sn              = 257, 491, 561,
/
