&geogrid
 geog_data_res = 'usgs_lakes+10m', 'usgs_lakes+10m', 'usgs_lakes+30s', 'usgs_lakes+30s', 'usgs_lakes+30s',
 dx = 90000,
 dy = 90000,
 map_proj = 'lambert',
 ref_lat   =  20.00,
 ref_lon   = -140.50,
 ref_x   =  1,
 ref_y   = 61,
 truelat1  =  50,
 truelat2  =  50,
 stand_lon = -107,
 geog_data_path = '/project/p/peltier/aerler/geog/',
 opt_geogrid_tbl_path = 'meta/'
/
