This is the grid definition that's shared between the WPS and WRF namelist
&geogrid
 parent_id         =    1,    1,
 parent_grid_ratio =    1,    3,
 i_parent_start    =    1,  117,
 j_parent_start    =    1,  106,
 e_we              =  331,  331,
 e_sn              =  211,  211,
/
