This is the grid definition that's shared between the WPS and WRF namelist
&geogrid
 parent_id         =    1,    1,    2,
 parent_grid_ratio =    1,    3,    3,
 i_parent_start    =    1,  116,   42,
 j_parent_start    =    1,  108,   16,
 e_we              =  304,  256,  544,!  = 85, 175
 e_sn              =  224,  208,  448,!  = 69, 152
/
