&geogrid
 geog_data_res = 'usgs_lakes+10m', 'usgs_lakes+2m', 'usgs_lakes+30s',
 dx = 30000,
 dy = 30000,
 map_proj = 'lambert',
 ref_lat   =  47,
 ref_lon   = -125.0,
 truelat1  =  60., ! 57
 truelat2  =  35., ! 47
 stand_lon = -125.0,
 geog_data_path = '/project/p/peltier/aerler/geog/',
 opt_geogrid_tbl_path = 'meta/'
/
