&geogrid
 geog_data_res = 'default',
 dx = 0.11,
 dy = 0.11,
 map_proj = 'lat-lon',
 ref_lat   =  48.0,
 ref_lon   = -100.2,
 stand_lon = 100.2,
 pole_lat = 42.0,
 pole_lon = 180,
 geog_data_path = '/project/p/peltier/WRF/geog_20210707/',
 opt_geogrid_tbl_path = 'meta/'
/
