&geogrid
 geog_data_res = 'usgs_lakes+10m', 'usgs_lakes+2m', 'usgs_lakes+30s',
 dx = 30000,
 dy = 30000,
 map_proj = 'lambert',
 ref_lat   = 31.161,
 ref_lon   = 20.336,
 truelat1  = 31.161,
 truelat2  = 31.161,
 stand_lon = 20.336,
 geog_data_path = '/project/p/peltier/aerler/geog/',
 opt_geogrid_tbl_path = 'meta/'
/
