&geogrid
 geog_data_res = 'usgs_lakes+2m','usgs_lakes+30s','usgs_lakes+30s','usgs_lakes+30s',
 dx = 7000,
 dy = 7000,
 map_proj =  'lambert',
 ref_lat   = 49,
 ref_lon   = -130,
 truelat1  = 49,
 truelat2  = 49,
 stand_lon = -75,
 geog_data_path = '',
 opt_geogrid_tbl_path = 'meta/',
 ref_x = 66.5,
 ref_y = 80.0,
/
