&geogrid
 geog_data_res = 'modis_5m+topo_5m+1deg+10m+lowres', 'modis_5mi+topo_5m+20m+5m+lowres', 'modis_30s+topo_30s+2m+30s', 'modis_30s+topo_30s+30s',
 dx = 30000,
 dy = 30000,
 map_proj = 'lambert',
 ref_lat   =  47,
 ref_lon   = -125.0,
 truelat1  =  60., ! 57
 truelat2  =  35., ! 47
 stand_lon = -125.0,
 geog_data_path = '/project/p/peltier/WRF/geog_v4.1/',
 opt_geogrid_tbl_path = 'meta/',
/
