&geogrid
 geog_data_res = 'modis_30s+10m', 'modis_30s+5m',
 dx = 30000,
 dy = 30000,
 map_proj = 'lambert',
 ref_lat   =  57.,
 ref_lon   = -137.0,
 truelat1  =  53.,
 truelat2  =  53.,
 stand_lon = -130,
 geog_data_path = '/project/p/peltier/aerler/geog/',
 opt_geogrid_tbl_path = 'meta/'
/
