&geogrid
 geog_data_res = 'usgs_lakes+2m','usgs_lakes+30s','usgs_lakes+30s','usgs_lakes+30s',
 dx = 7000,
 dy = 7000,
 map_proj =  'lambert',
 ref_lat   = 51.248,
 ref_lon   = -122.939,
 truelat1  = 51.248,
 truelat2  = 51.248,
 stand_lon = -65,
 geog_data_path = '',
 opt_geogrid_tbl_path = 'meta/',
 ref_x = 128.0,
 ref_y = 128.5,
/
