&domains
 max_dom                             = 1,
! time-step is tweaked to account for map factors in outer domain
 time_step                           =  600,
 parent_time_step_ratio              =    1, 2.7272727,
! geogrid parameters start here
 parent_id                           =    1,    1,
 parent_grid_ratio                   =    1,    3,
 i_parent_start                      =    1,   28,
 e_we                                =   65,   67,
 j_parent_start                      =    1,   13,
 e_sn                                =   45,   67,
! geogrid parameters end here
 e_vert                              = 28, 28,
 dx                                  = 120000, 40000,
 dy                                  = 120000, 40000,
 feedback                            = 0,
 smooth_option                       = 0,
 num_metgrid_levels                  = 27,
 num_metgrid_soil_levels             = 4,
 force_sfc_in_vinterp                = 1,
 interp_type                         = 1,
 use_levels_below_ground             = .true.,
 use_surface                         = .true.,
 lagrange_order                      = 1,
 lowest_lev_from_sfc                 = .false.,
 smooth_cg_topo                      = .false.,
 zap_close_levels                    = 0,
 p_top_requested                     = 5000,
/ 
