&share
 wrf_core = 'ARW',
 max_dom = 2,
 start_date = '1979-01-01_00:00:00', '1979-01-01_00:00:00', '1979-01-01_00:00:00', 
 end_date   = '1979-02-01_00:00:00', '1979-02-01_00:00:00', '1979-02-01_00:00:00',
 interval_seconds = 21600,
 io_form_geogrid = 2,
/
 
